!RHF ZINDO/S TightSCF DIIS NoRICO NoMOPrint
%cis NRoots 10
MaxDim 25
triplets true
end

* xyz 0 1
C -4.10987 -1.12424 0.68999
N -3.55263 0.22522 0.50706
C -2.26672 0.32486 -0.02815
C -1.34863 -0.74203 0.11572
C -0.02892 -0.58682 -0.27519
C 0.41341 0.61645 -0.82978
C -0.49685 1.66083 -1.01574
C -1.81845 1.52711 -0.61989
C 1.81111 0.80871 -1.25574
O 2.09745 1.54869 -2.17050
C 2.88100 0.07438 -0.52755
C 2.83191 -0.07621 0.85830
C 3.85728 -0.75186 1.51588
C 4.92808 -1.27259 0.78947
C 4.98028 -1.11078 -0.59424
C 3.95933 -0.43029 -1.25447
C -4.55575 1.21037 0.07487
H -3.51090 -1.67090 1.44208
H -4.13181 -1.71144 -0.24315
H -5.13718 -1.06626 1.08686
H -1.66499 -1.68821 0.54162
H 0.66907 -1.41937 -0.15611
H -0.15610 2.59080 -1.48204
H -2.49923 2.35786 -0.77124
H 1.99739 0.33945 1.42461
H 3.82262 -0.87144 2.59648
H 5.72750 -1.80260 1.30419
H 5.81953 -1.51053 -1.15896
H 4.00065 -0.28091 -2.33508
H -4.72718 1.20577 -1.01431
H -4.23406 2.22298 0.38280
H -5.51890 1.02302 0.57926
*