!RHF ZINDO/S TightSCF DIIS NoRICO NoMOPrint
%cis NRoots 10
MaxDim 25
triplets true
end

* xyz 0 1
N 2.93292 -2.83086 -1.61842
C 2.83602 -1.83802 -1.02777
C 2.74618 -0.62561 -0.31523
C 1.61165 0.07555 0.00046
N 0.31051 -0.20831 -0.33580
C -0.06868 -1.53791 -0.78857
Cl 0.36104 -2.69468 0.53815
C -1.55529 -1.70300 -1.06180
C -2.37485 -1.18654 0.12208
C -2.01435 0.24172 0.36134
C -0.71501 0.70074 0.08295
C -0.42673 2.07001 0.17197
C -1.39977 2.95490 0.62423
C -2.66752 2.49163 0.96868
C -2.97446 1.14189 0.82048
C 4.04642 -0.09984 0.11205
O 5.14884 -0.49622 -0.15402
O 3.89330 0.99774 0.91719
H 1.74042 1.02056 0.58333
H 0.55312 -1.84907 -1.66871
H -1.79309 -2.76746 -1.27320
H -1.83411 -1.15291 -1.98750
H -2.18852 -1.79432 1.03672
H -3.45937 -1.30452 -0.08048
H 0.54701 2.46179 -0.12323
H -1.16596 4.01667 0.70507
H -3.42015 3.18548 1.33968
H -3.97652 0.78532 1.06057
H 4.75278 1.36262 1.23967
*